
     RDKit          3D

 32 32  0  0  0  0  0  0  0  0999 V2000
    0.0004   -4.1940    0.7917 O   0  0  0  0  0  0  0  0  0  0  0  0
   -0.1883   -2.8677    0.3795 C   0  0  0  0  0  0  0  0  0  0  0  0
    0.8918   -2.1487   -0.0900 C   0  0  0  0  0  0  0  0  0  0  0  0
    0.7208   -0.8373   -0.5009 C   0  0  0  0  0  0  0  0  0  0  0  0
   -0.5577   -0.3161   -0.4123 C   0  0  0  0  0  0  0  0  0  0  0  0
   -1.6376   -1.0171    0.0511 C   0  0  0  0  0  0  0  0  0  0  0  0
   -2.8993   -0.4949    0.1359 O   0  0  0  0  0  0  0  0  0  0  0  0
   -3.3169    0.7860   -0.2130 C   0  0  0  0  0  0  0  0  0  0  0  0
   -1.4555   -2.3290    0.4598 C   0  0  0  0  0  0  0  0  0  0  0  0
   -2.5283   -3.0576    0.9311 O   0  0  0  0  0  0  0  0  0  0  0  0
   -2.9415   -3.1253    2.2757 C   0  0  0  0  0  0  0  0  0  0  0  0
    1.8363   -0.0310   -1.0073 C   0  0  0  0  0  0  0  0  0  0  0  0
    2.4953    0.7026    0.1636 C   0  0  0  0  0  0  0  0  0  0  0  0
    2.9960   -0.2516    1.1343 N   0  0  0  0  0  0  0  0  0  0  0  0
    1.3145   -4.7550    0.7092 C   0  0  0  0  0  0  0  0  0  0  0  0
    1.8456   -2.6317   -0.1241 H   0  0  0  0  0  0  0  0  0  0  0  0
   -0.6752    0.7096   -0.7371 H   0  0  0  0  0  0  0  0  0  0  0  0
   -3.5385    0.8908   -1.3043 H   0  0  0  0  0  0  0  0  0  0  0  0
   -2.6613    1.5978    0.1120 H   0  0  0  0  0  0  0  0  0  0  0  0
   -4.3145    0.9535    0.2851 H   0  0  0  0  0  0  0  0  0  0  0  0
   -3.5096   -4.0711    2.4049 H   0  0  0  0  0  0  0  0  0  0  0  0
   -3.6951   -2.3112    2.4393 H   0  0  0  0  0  0  0  0  0  0  0  0
   -2.1304   -3.1080    3.0112 H   0  0  0  0  0  0  0  0  0  0  0  0
    1.5685    0.6630   -1.8064 H   0  0  0  0  0  0  0  0  0  0  0  0
    2.6249   -0.7000   -1.4437 H   0  0  0  0  0  0  0  0  0  0  0  0
    3.3688    1.2917   -0.2043 H   0  0  0  0  0  0  0  0  0  0  0  0
    1.7635    1.3590    0.6774 H   0  0  0  0  0  0  0  0  0  0  0  0
    3.4812   -1.0420    0.6187 H   0  0  0  0  0  0  0  0  0  0  0  0
    3.6916    0.1878    1.7657 H   0  0  0  0  0  0  0  0  0  0  0  0
    1.6106   -4.7134   -0.3663 H   0  0  0  0  0  0  0  0  0  0  0  0
    1.2233   -5.7838    1.0962 H   0  0  0  0  0  0  0  0  0  0  0  0
    1.9525   -4.1083    1.3557 H   0  0  0  0  0  0  0  0  0  0  0  0
  1  2  1  0
  2  3  2  0
  3  4  1  0
  4  5  2  0
  5  6  1  0
  6  7  1  0
  7  8  1  0
  6  9  2  0
  9 10  1  0
 10 11  1  0
  4 12  1  0
 12 13  1  0
 13 14  1  0
  1 15  1  0
  9  2  1  0
  3 16  1  0
  5 17  1  0
  8 18  1  0
  8 19  1  0
  8 20  1  0
 11 21  1  0
 11 22  1  0
 11 23  1  0
 12 24  1  0
 12 25  1  0
 13 26  1  0
 13 27  1  0
 14 28  1  0
 14 29  1  0
 15 30  1  0
 15 31  1  0
 15 32  1  0
M  END
$$$$
