
     RDKit          3D

 31 32  0  0  0  0  0  0  0  0999 V2000
    4.9405    0.3383   -0.6268 C   0  0  0  0  0  0  0  0  0  0  0  0
    3.8176    1.1231   -0.3219 N   0  0  0  0  0  0  0  0  0  0  0  0
    3.9946    2.5088   -0.1965 C   0  0  0  0  0  0  0  0  0  0  0  0
    2.6055    0.5237    0.0590 C   0  0  0  0  0  0  0  0  0  0  0  0
    1.9267   -0.2278   -1.0624 C   0  0  0  0  0  0  0  0  0  0  0  0
    0.6505   -0.8216   -0.5970 C   0  0  0  0  0  0  0  0  0  0  0  0
    0.3969   -2.1312   -0.2157 C   0  0  0  0  0  0  0  0  0  0  0  0
   -0.9042   -2.2478    0.1637 N   0  0  0  0  0  0  0  0  0  0  0  0
   -1.4919   -1.0305    0.0302 C   0  0  0  0  0  0  0  0  0  0  0  0
   -2.7901   -0.5873    0.2685 C   0  0  0  0  0  0  0  0  0  0  0  0
   -3.1760    0.7210    0.0540 C   0  0  0  0  0  0  0  0  0  0  0  0
   -2.2284    1.6057   -0.4156 C   0  0  0  0  0  0  0  0  0  0  0  0
   -0.9305    1.1843   -0.6597 C   0  0  0  0  0  0  0  0  0  0  0  0
   -0.0342    2.1395   -1.1314 O   0  0  0  0  0  0  0  0  0  0  0  0
   -0.5520   -0.1313   -0.4385 C   0  0  0  0  0  0  0  0  0  0  0  0
    5.8337    0.9443   -0.8552 H   0  0  0  0  0  0  0  0  0  0  0  0
    5.2243   -0.2567    0.2873 H   0  0  0  0  0  0  0  0  0  0  0  0
    4.7726   -0.3366   -1.5051 H   0  0  0  0  0  0  0  0  0  0  0  0
    4.8419    2.8367   -0.8361 H   0  0  0  0  0  0  0  0  0  0  0  0
    3.1023    3.0469   -0.6248 H   0  0  0  0  0  0  0  0  0  0  0  0
    4.1937    2.8530    0.8410 H   0  0  0  0  0  0  0  0  0  0  0  0
    1.9113    1.2394    0.4861 H   0  0  0  0  0  0  0  0  0  0  0  0
    2.8465   -0.2899    0.8195 H   0  0  0  0  0  0  0  0  0  0  0  0
    2.5621   -1.0627   -1.4519 H   0  0  0  0  0  0  0  0  0  0  0  0
    1.7432    0.4570   -1.9361 H   0  0  0  0  0  0  0  0  0  0  0  0
    1.1377   -2.9395   -0.2220 H   0  0  0  0  0  0  0  0  0  0  0  0
   -1.3577   -3.1432    0.4994 H   0  0  0  0  0  0  0  0  0  0  0  0
   -3.4941   -1.3005    0.6262 H   0  0  0  0  0  0  0  0  0  0  0  0
   -4.1886    1.0625    0.2432 H   0  0  0  0  0  0  0  0  0  0  0  0
   -2.5144    2.6483   -0.5931 H   0  0  0  0  0  0  0  0  0  0  0  0
    0.1049    2.9952   -0.6482 H   0  0  0  0  0  0  0  0  0  0  0  0
  1  2  1  0
  2  3  1  0
  2  4  1  0
  4  5  1  0
  5  6  1  0
  6  7  2  0
  7  8  1  0
  8  9  1  0
  9 10  2  0
 10 11  1  0
 11 12  2  0
 12 13  1  0
 13 14  1  0
 13 15  2  0
 15  6  1  0
 15  9  1  0
  1 16  1  0
  1 17  1  0
  1 18  1  0
  3 19  1  0
  3 20  1  0
  3 21  1  0
  4 22  1  0
  4 23  1  0
  5 24  1  0
  5 25  1  0
  7 26  1  0
  8 27  1  0
 10 28  1  0
 11 29  1  0
 12 30  1  0
 14 31  1  0
M  END
$$$$
