
     RDKit          3D

 25 26  0  0  0  0  0  0  0  0999 V2000
   -3.1699    0.7138    0.0517 C   0  0  0  0  0  0  0  0  0  0  0  0
   -2.8125   -0.6090    0.2566 C   0  0  0  0  0  0  0  0  0  0  0  0
   -1.4992   -1.0168    0.0143 C   0  0  0  0  0  0  0  0  0  0  0  0
   -0.5456   -0.1238   -0.4269 C   0  0  0  0  0  0  0  0  0  0  0  0
   -0.9071    1.1889   -0.6287 C   0  0  0  0  0  0  0  0  0  0  0  0
   -2.2158    1.6030   -0.3895 C   0  0  0  0  0  0  0  0  0  0  0  0
   -2.5995    2.9312   -0.5905 O   0  0  0  0  0  0  0  0  0  0  0  0
    0.6351   -0.8203   -0.5702 C   0  0  0  0  0  0  0  0  0  0  0  0
    0.3932   -2.1309   -0.2157 C   0  0  0  0  0  0  0  0  0  0  0  0
   -0.9046   -2.2357    0.1365 N   0  0  0  0  0  0  0  0  0  0  0  0
    1.9321   -0.2537   -1.0264 C   0  0  0  0  0  0  0  0  0  0  0  0
    2.6210    0.5452    0.0216 C   0  0  0  0  0  0  0  0  0  0  0  0
    2.9499   -0.1565    1.2254 N   0  0  0  0  0  0  0  0  0  0  0  0
   -4.1762    1.0617    0.2307 H   0  0  0  0  0  0  0  0  0  0  0  0
   -3.5674   -1.2998    0.6024 H   0  0  0  0  0  0  0  0  0  0  0  0
   -0.1592    1.8698   -0.9715 H   0  0  0  0  0  0  0  0  0  0  0  0
   -2.9196    3.4053    0.2575 H   0  0  0  0  0  0  0  0  0  0  0  0
    1.0883   -2.9684   -0.2049 H   0  0  0  0  0  0  0  0  0  0  0  0
   -1.4266   -3.1060    0.4633 H   0  0  0  0  0  0  0  0  0  0  0  0
    1.8413    0.3795   -1.9302 H   0  0  0  0  0  0  0  0  0  0  0  0
    2.6512   -1.0800   -1.2880 H   0  0  0  0  0  0  0  0  0  0  0  0
    2.1256    1.5024    0.2769 H   0  0  0  0  0  0  0  0  0  0  0  0
    3.6127    0.8540   -0.4275 H   0  0  0  0  0  0  0  0  0  0  0  0
    3.7346   -0.8284    1.0756 H   0  0  0  0  0  0  0  0  0  0  0  0
    3.3185    0.5746    1.8958 H   0  0  0  0  0  0  0  0  0  0  0  0
  1  2  2  0
  2  3  1  0
  3  4  2  0
  4  5  1  0
  5  6  2  0
  6  7  1  0
  4  8  1  0
  8  9  2  0
  9 10  1  0
  8 11  1  0
 11 12  1  0
 12 13  1  0
  6  1  1  0
 10  3  1  0
  1 14  1  0
  2 15  1  0
  5 16  1  0
  7 17  1  0
  9 18  1  0
 10 19  1  0
 11 20  1  0
 11 21  1  0
 12 22  1  0
 12 23  1  0
 13 24  1  0
 13 25  1  0
M  END
$$$$
